# generated using pymatgen
data_CoSb3
_symmetry_space_group_name_H-M   'P 1'
_cell_length_a   9.05319029
_cell_length_b   9.05319029
_cell_length_c   9.05319029
_cell_angle_alpha   90.00000000
_cell_angle_beta   90.00000000
_cell_angle_gamma   90.00000000
_symmetry_Int_Tables_number   1
_chemical_formula_structural   CoSb3
_chemical_formula_sum   'Co8 Sb24'
_cell_volume   742.00177993
_cell_formula_units_Z   8
loop_
 _symmetry_equiv_pos_site_id
 _symmetry_equiv_pos_as_xyz
  1  'x, y, z'
loop_
 _atom_type_symbol
 _atom_type_oxidation_number
  Co3+  3.0
  Sb-  -1.0
loop_
 _atom_site_type_symbol
 _atom_site_label
 _atom_site_symmetry_multiplicity
 _atom_site_fract_x
 _atom_site_fract_y
 _atom_site_fract_z
 _atom_site_occupancy
  Co3+  Co0  1  0.25000000  0.25000000  0.75000000  1
  Co3+  Co1  1  0.75000000  0.25000000  0.75000000  1
  Co3+  Co2  1  0.75000000  0.75000000  0.75000000  1
  Co3+  Co3  1  0.75000000  0.25000000  0.25000000  1
  Co3+  Co4  1  0.75000000  0.75000000  0.25000000  1
  Co3+  Co5  1  0.25000000  0.75000000  0.25000000  1
  Co3+  Co6  1  0.25000000  0.25000000  0.25000000  1
  Co3+  Co7  1  0.25000000  0.75000000  0.75000000  1
  Sb-  Sb8  1  0.33385224  0.00000000  0.84126131  1
  Sb-  Sb9  1  0.65873869  0.16614776  0.50000000  1
  Sb-  Sb10  1  0.50000000  0.34126131  0.16614776  1
  Sb-  Sb11  1  0.84126131  0.66614776  0.00000000  1
  Sb-  Sb12  1  0.00000000  0.15873869  0.33385224  1
  Sb-  Sb13  1  0.84126131  0.33385224  0.00000000  1
  Sb-  Sb14  1  0.50000000  0.34126131  0.83385224  1
  Sb-  Sb15  1  0.00000000  0.15873869  0.66614776  1
  Sb-  Sb16  1  0.65873869  0.83385224  0.50000000  1
  Sb-  Sb17  1  0.66614776  0.00000000  0.84126131  1
  Sb-  Sb18  1  0.83385224  0.50000000  0.65873869  1
  Sb-  Sb19  1  0.16614776  0.50000000  0.65873869  1
  Sb-  Sb20  1  0.83385224  0.50000000  0.34126131  1
  Sb-  Sb21  1  0.15873869  0.66614776  0.00000000  1
  Sb-  Sb22  1  0.00000000  0.84126131  0.66614776  1
  Sb-  Sb23  1  0.34126131  0.16614776  0.50000000  1
  Sb-  Sb24  1  0.50000000  0.65873869  0.83385224  1
  Sb-  Sb25  1  0.34126131  0.83385224  0.50000000  1
  Sb-  Sb26  1  0.00000000  0.84126131  0.33385224  1
  Sb-  Sb27  1  0.50000000  0.65873869  0.16614776  1
  Sb-  Sb28  1  0.15873869  0.33385224  0.00000000  1
  Sb-  Sb29  1  0.16614776  0.50000000  0.34126131  1
  Sb-  Sb30  1  0.33385224  0.00000000  0.15873869  1
  Sb-  Sb31  1  0.66614776  0.00000000  0.15873869  1
