# generated using pymatgen
data_TePb
_symmetry_space_group_name_H-M   'P 1'
_cell_length_a   6.54179361
_cell_length_b   6.54179361
_cell_length_c   6.54179361
_cell_angle_alpha   90.00000000
_cell_angle_beta   90.00000000
_cell_angle_gamma   90.00000000
_symmetry_Int_Tables_number   1
_chemical_formula_structural   TePb
_chemical_formula_sum   'Te4 Pb4'
_cell_volume   279.95647385
_cell_formula_units_Z   4
loop_
 _symmetry_equiv_pos_site_id
 _symmetry_equiv_pos_as_xyz
  1  'x, y, z'
loop_
 _atom_type_symbol
 _atom_type_oxidation_number
  Te2-  -2.0
  Pb2+  2.0
loop_
 _atom_site_type_symbol
 _atom_site_label
 _atom_site_symmetry_multiplicity
 _atom_site_fract_x
 _atom_site_fract_y
 _atom_site_fract_z
 _atom_site_occupancy
  Te2-  Te0  1  0.00000000  0.00000000  0.00000000  1
  Te2-  Te1  1  0.00000000  0.50000000  0.50000000  1
  Te2-  Te2  1  0.50000000  0.00000000  0.50000000  1
  Te2-  Te3  1  0.50000000  0.50000000  0.00000000  1
  Pb2+  Pb4  1  0.00000000  0.00000000  0.50000000  1
  Pb2+  Pb5  1  0.00000000  0.50000000  0.00000000  1
  Pb2+  Pb6  1  0.50000000  0.00000000  0.00000000  1
  Pb2+  Pb7  1  0.50000000  0.50000000  0.50000000  1
